  0
SECTION
  2
ENTITIES
999
DXF created from EnergyPlus
999
Program Version,EnergyPlus, Version 23.1.0-87ed9199d4, YMD=2024.04.28 16:08
999
Polygon Action,TRIANGULATE3DFACE
999
Color Scheme,Default
999
Text - True North
  0
TEXT
  8
1
  6
Continuous
 62
  3
 10
       33.07510
 20
        8.43930
 30
        0.10000
 40
 .25
  1
True North
 41
 0.0
  7
MONOTXT
210
0.0
220
0.0
230
1.0
999
Text - Building Title
  0
TEXT
  8
1
  6
Continuous
 62
  3
 10
       30.07510
 20
        4.43930
 30
        0.10000
 40
 .4
  1
Building - Building
 41
 0.0
  7
MONOTXT
210
0.0
220
0.0
230
1.0
999
North Arrow Stem
  0
3DFACE
  8
1
 62
  3
 10
       34.07510
 20
        8.43930
 30
        0.10000
 11
       34.07510
 21
        8.43930
 31
        0.00000
 12
       34.07510
 22
        5.43930
 32
        0.00000
 13
       34.07510
 23
        5.43930
 33
        0.10000
999
North Arrow Head 1
  0
3DFACE
  8
1
 62
  3
 10
       34.07510
 20
        8.43930
 30
        0.10000
 11
       34.07510
 21
        8.43930
 31
        0.00000
 12
       33.57510
 22
        7.57328
 32
        0.00000
 13
       33.57510
 23
        7.57328
 33
        0.10000
999
North Arrow Head 2
  0
3DFACE
  8
1
 62
  3
 10
       34.07510
 20
        8.43930
 30
        0.10000
 11
       34.07510
 21
        8.43930
 31
        0.00000
 12
       34.57510
 22
        7.57328
 32
        0.00000
 13
       34.57510
 23
        7.57328
 33
        0.10000
999
North Arrow Side 1
  0
3DFACE
  8
1
 62
  3
 10
       33.57510
 20
        9.93930
 30
        0.10000
 11
       33.57510
 21
        9.93930
 31
        0.00000
 12
       33.57510
 22
        8.93930
 32
        0.00000
 13
       33.57510
 23
        8.93930
 33
        0.10000
999
North Arrow Side 2
  0
3DFACE
  8
1
 62
  3
 10
       33.57510
 20
        9.93930
 30
        0.10000
 11
       33.57510
 21
        9.93930
 31
        0.00000
 12
       34.57510
 22
        8.93930
 32
        0.00000
 13
       34.57510
 23
        8.93930
 33
        0.10000
999
North Arrow Side 3
  0
3DFACE
  8
1
 62
  3
 10
       34.57510
 20
        9.93930
 30
        0.10000
 11
       34.57510
 21
        9.93930
 31
        0.00000
 12
       34.57510
 22
        8.93930
 32
        0.00000
 13
       34.57510
 23
        8.93930
 33
        0.10000
999
Zone Names
999
Zone=1:ZONE_0
999
Zone=2:ZONE_1
999
Zone=3:ZONE_2
999
Zone=4:ZONE_3
999
Zone=5:ZONE_4
999
ZONE_0:ZONE_0:F0
  0
3DFACE
  8
ZONE_0
 62
 43
 10
       50.22890
 20
       10.09460
 30
        3.00000
 11
       50.22890
 21
       10.09460
 31
        0.00000
 12
       44.07510
 22
       10.09460
 32
        0.00000
 13
       44.07510
 23
       10.09460
 33
        3.00000
999
ZONE_0:ZONE_0:F1
  0
3DFACE
  8
ZONE_0
 62
 43
 10
       50.22890
 20
        5.43930
 30
        3.00000
 11
       50.22890
 21
        5.43930
 31
        0.00000
 12
       50.22890
 22
       10.09460
 32
        0.00000
 13
       50.22890
 23
       10.09460
 33
        3.00000
999
ZONE_0:ZONE_0:F2
  0
3DFACE
  8
ZONE_0
 62
 43
 10
       44.07510
 20
        5.43930
 30
        3.00000
 11
       44.07510
 21
        5.43930
 31
        0.00000
 12
       50.22890
 22
        5.43930
 32
        0.00000
 13
       50.22890
 23
        5.43930
 33
        3.00000
999
ZONE_0:ZONE_0:F2:W0
  0
3DFACE
  8
ZONE_0
 62
143
 10
       45.61350
 20
        5.43930
 30
        2.25000
 11
       45.61350
 21
        5.43930
 31
        0.75000
 12
       48.69040
 22
        5.43930
 32
        0.75000
 13
       48.69040
 23
        5.43930
 33
        2.25000
999
ZONE_0:ZONE_0:F3
  0
3DFACE
  8
ZONE_0
 62
 43
 10
       44.07510
 20
       10.09460
 30
        3.00000
 11
       44.07510
 21
       10.09460
 31
        0.00000
 12
       44.07510
 22
        5.43930
 32
        0.00000
 13
       44.07510
 23
        5.43930
 33
        3.00000
999
ZONE_0:ZONE_0:F5
  0
3DFACE
  8
ZONE_0
 62
  8
 10
       44.07510
 20
       10.09460
 30
        0.00000
 11
       50.22890
 21
       10.09460
 31
        0.00000
 12
       50.22890
 22
        5.43930
 32
        0.00000
 13
       44.07510
 23
        5.43930
 33
        0.00000
999
ZONE_0:ZONE_0:F4
  0
3DFACE
  8
ZONE_0
 62
 15
 10
       44.07510
 20
       10.09460
 30
        3.00000
 11
       44.07510
 21
        5.43930
 31
        3.00000
 12
       50.22890
 22
        5.43930
 32
        3.00000
 13
       50.22890
 23
       10.09460
 33
        3.00000
999
ZONE_1:ZONE_1:F0
  0
3DFACE
  8
ZONE_1
 62
 43
 10
       50.24890
 20
       13.95080
 30
        3.00000
 11
       50.24890
 21
       13.95080
 31
        0.00000
 12
       44.07510
 22
       13.95080
 32
        0.00000
 13
       44.07510
 23
       13.95080
 33
        3.00000
999
ZONE_1:ZONE_1:F0:W0
  0
3DFACE
  8
ZONE_1
 62
143
 10
       48.70540
 20
       13.95080
 30
        2.25000
 11
       48.70540
 21
       13.95080
 31
        0.75000
 12
       45.61850
 22
       13.95080
 32
        0.75000
 13
       45.61850
 23
       13.95080
 33
        2.25000
999
ZONE_1:ZONE_1:F1
  0
3DFACE
  8
ZONE_1
 62
 43
 10
       50.24890
 20
       11.29340
 30
        3.00000
 11
       50.24890
 21
       11.29340
 31
        0.00000
 12
       50.24890
 22
       13.95080
 32
        0.00000
 13
       50.24890
 23
       13.95080
 33
        3.00000
999
ZONE_1:ZONE_1:F2
  0
3DFACE
  8
ZONE_1
 62
 43
 10
       50.24890
 20
       10.09460
 30
        3.00000
 11
       50.24890
 21
       10.09460
 31
        0.00000
 12
       50.24890
 22
       11.29340
 32
        0.00000
 13
       50.24890
 23
       11.29340
 33
        3.00000
999
ZONE_1:ZONE_1:F3
  0
3DFACE
  8
ZONE_1
 62
 43
 10
       44.07510
 20
       10.09460
 30
        3.00000
 11
       44.07510
 21
       10.09460
 31
        0.00000
 12
       50.22890
 22
       10.09460
 32
        0.00000
 13
       50.22890
 23
       10.09460
 33
        3.00000
999
ZONE_1:ZONE_1:F4
  0
3DFACE
  8
ZONE_1
 62
 43
 10
       44.07510
 20
       13.95080
 30
        3.00000
 11
       44.07510
 21
       13.95080
 31
        0.00000
 12
       44.07510
 22
       10.09460
 32
        0.00000
 13
       44.07510
 23
       10.09460
 33
        3.00000
999
ZONE_1:ZONE_1:F6
  0
3DFACE
  8
ZONE_1
 62
  8
 10
       44.07510
 20
       13.95080
 30
        0.00000
 11
       50.24890
 21
       13.95080
 31
        0.00000
 12
       50.24890
 22
       10.09460
 32
        0.00000
 13
       44.07510
 23
       10.09460
 33
        0.00000
999
ZONE_1:ZONE_1:F5
  0
3DFACE
  8
ZONE_1
 62
 15
 10
       44.07510
 20
       13.95080
 30
        3.00000
 11
       44.07510
 21
       10.09460
 31
        3.00000
 12
       50.24890
 22
       10.09460
 32
        3.00000
 13
       50.24890
 23
       13.95080
 33
        3.00000
999
ZONE_2:ZONE_2:F0
  0
3DFACE
  8
ZONE_2
 62
 43
 10
       55.37380
 20
       13.95080
 30
        3.00000
 11
       55.37380
 21
       13.95080
 31
        0.00000
 12
       52.39670
 22
       13.95080
 32
        0.00000
 13
       52.39670
 23
       13.95080
 33
        3.00000
999
ZONE_2:ZONE_2:F1
  0
3DFACE
  8
ZONE_2
 62
 43
 10
       55.37380
 20
       11.29340
 30
        3.00000
 11
       55.37380
 21
       11.29340
 31
        0.00000
 12
       55.37380
 22
       13.95080
 32
        0.00000
 13
       55.37380
 23
       13.95080
 33
        3.00000
999
ZONE_2:ZONE_2:F2
  0
3DFACE
  8
ZONE_2
 62
 43
 10
       52.39670
 20
       11.29340
 30
        3.00000
 11
       52.39670
 21
       11.29340
 31
        0.00000
 12
       55.37380
 22
       11.29340
 32
        0.00000
 13
       55.37380
 23
       11.29340
 33
        3.00000
999
ZONE_2:ZONE_2:F3
  0
3DFACE
  8
ZONE_2
 62
 43
 10
       52.39670
 20
       13.95080
 30
        3.00000
 11
       52.39670
 21
       13.95080
 31
        0.00000
 12
       52.39670
 22
       11.29340
 32
        0.00000
 13
       52.39670
 23
       11.29340
 33
        3.00000
999
ZONE_2:ZONE_2:F5
  0
3DFACE
  8
ZONE_2
 62
  8
 10
       52.39670
 20
       13.95080
 30
        0.00000
 11
       55.37380
 21
       13.95080
 31
        0.00000
 12
       55.37380
 22
       11.29340
 32
        0.00000
 13
       52.39670
 23
       11.29340
 33
        0.00000
999
ZONE_2:ZONE_2:F4
  0
3DFACE
  8
ZONE_2
 62
 15
 10
       52.39670
 20
       13.95080
 30
        3.00000
 11
       52.39670
 21
       11.29340
 31
        3.00000
 12
       55.37380
 22
       11.29340
 32
        3.00000
 13
       55.37380
 23
       13.95080
 33
        3.00000
999
ZONE_3:ZONE_3:F0
  0
3DFACE
  8
ZONE_3
 62
 43
 10
       52.39670
 20
       13.95080
 30
        3.00000
 11
       52.39670
 21
       13.95080
 31
        0.00000
 12
       50.24890
 22
       13.95080
 32
        0.00000
 13
       50.24890
 23
       13.95080
 33
        3.00000
999
ZONE_3:ZONE_3:F1
  0
3DFACE
  8
ZONE_3
 62
 43
 10
       52.39670
 20
       11.29340
 30
        3.00000
 11
       52.39670
 21
       11.29340
 31
        0.00000
 12
       52.39670
 22
       13.95080
 32
        0.00000
 13
       52.39670
 23
       13.95080
 33
        3.00000
999
ZONE_3:ZONE_3:F2
  0
3DFACE
  8
ZONE_3
 62
 43
 10
       50.24890
 20
       11.29340
 30
        3.00000
 11
       50.24890
 21
       11.29340
 31
        0.00000
 12
       52.39670
 22
       11.29340
 32
        0.00000
 13
       52.39670
 23
       11.29340
 33
        3.00000
999
ZONE_3:ZONE_3:F3
  0
3DFACE
  8
ZONE_3
 62
 43
 10
       50.24890
 20
       13.95080
 30
        3.00000
 11
       50.24890
 21
       13.95080
 31
        0.00000
 12
       50.24890
 22
       11.29340
 32
        0.00000
 13
       50.24890
 23
       11.29340
 33
        3.00000
999
ZONE_3:ZONE_3:F5
  0
3DFACE
  8
ZONE_3
 62
  8
 10
       50.24890
 20
       13.95080
 30
        0.00000
 11
       52.39670
 21
       13.95080
 31
        0.00000
 12
       52.39670
 22
       11.29340
 32
        0.00000
 13
       50.24890
 23
       11.29340
 33
        0.00000
999
ZONE_3:ZONE_3:F4
  0
3DFACE
  8
ZONE_3
 62
 15
 10
       50.24890
 20
       13.95080
 30
        3.00000
 11
       50.24890
 21
       11.29340
 31
        3.00000
 12
       52.39670
 22
       11.29340
 32
        3.00000
 13
       52.39670
 23
       13.95080
 33
        3.00000
999
ZONE_4:ZONE_4:F0
  0
3DFACE
  8
ZONE_4
 62
 43
 10
       55.37380
 20
       10.08470
 30
        3.00000
 11
       55.37380
 21
       10.08470
 31
        0.00000
 12
       55.37380
 22
       11.29340
 32
        0.00000
 13
       55.37380
 23
       11.29340
 33
        3.00000
999
ZONE_4:ZONE_4:F1
  0
3DFACE
  8
ZONE_4
 62
 43
 10
       59.31980
 20
       10.08470
 30
        3.00000
 11
       59.31980
 21
       10.08470
 31
        0.00000
 12
       55.37380
 22
       10.08470
 32
        0.00000
 13
       55.37380
 23
       10.08470
 33
        3.00000
999
ZONE_4:ZONE_4:F2
  0
3DFACE
  8
ZONE_4
 62
 43
 10
       59.31980
 20
        5.43930
 30
        3.00000
 11
       59.31980
 21
        5.43930
 31
        0.00000
 12
       59.31980
 22
       10.08470
 32
        0.00000
 13
       59.31980
 23
       10.08470
 33
        3.00000
999
ZONE_4:ZONE_4:F3
  0
3DFACE
  8
ZONE_4
 62
 43
 10
       50.22890
 20
        5.43930
 30
        3.00000
 11
       50.22890
 21
        5.43930
 31
        0.00000
 12
       59.31980
 22
        5.43930
 32
        0.00000
 13
       59.31980
 23
        5.43930
 33
        3.00000
999
ZONE_4:ZONE_4:F3:W0
  0
3DFACE
  8
ZONE_4
 62
143
 10
       52.50160
 20
        5.43930
 30
        2.25000
 11
       52.50160
 21
        5.43930
 31
        0.75000
 12
       57.04710
 22
        5.43930
 32
        0.75000
 13
       57.04710
 23
        5.43930
 33
        2.25000
999
ZONE_4:ZONE_4:F4
  0
3DFACE
  8
ZONE_4
 62
 43
 10
       50.22890
 20
       10.09460
 30
        3.00000
 11
       50.22890
 21
       10.09460
 31
        0.00000
 12
       50.22890
 22
        5.43930
 32
        0.00000
 13
       50.22890
 23
        5.43930
 33
        3.00000
999
ZONE_4:ZONE_4:F5
  0
3DFACE
  8
ZONE_4
 62
 43
 10
       50.24890
 20
       11.29340
 30
        3.00000
 11
       50.24890
 21
       11.29340
 31
        0.00000
 12
       50.24890
 22
       10.09460
 32
        0.00000
 13
       50.24890
 23
       10.09460
 33
        3.00000
999
ZONE_4:ZONE_4:F6
  0
3DFACE
  8
ZONE_4
 62
 43
 10
       52.39670
 20
       11.29340
 30
        3.00000
 11
       52.39670
 21
       11.29340
 31
        0.00000
 12
       50.24890
 22
       11.29340
 32
        0.00000
 13
       50.24890
 23
       11.29340
 33
        3.00000
999
ZONE_4:ZONE_4:F7
  0
3DFACE
  8
ZONE_4
 62
 43
 10
       55.37380
 20
       11.29340
 30
        3.00000
 11
       55.37380
 21
       11.29340
 31
        0.00000
 12
       52.39670
 22
       11.29340
 32
        0.00000
 13
       52.39670
 23
       11.29340
 33
        3.00000
999
ZONE_4:ZONE_4:F9
  0
3DFACE
  8
ZONE_4
 62
  8
 10
       55.37380
 20
       10.08470
 30
        0.00000
 11
       59.31980
 21
       10.08470
 31
        0.00000
 12
       59.31980
 22
        5.43930
 32
        0.00000
 13
       59.31980
 23
        5.43930
 33
        0.00000
  0
3DFACE
  8
ZONE_4
 62
  8
 10
       55.37380
 20
       10.08470
 30
        0.00000
 11
       59.31980
 21
        5.43930
 31
        0.00000
 12
       50.22890
 22
        5.43930
 32
        0.00000
 13
       50.22890
 23
        5.43930
 33
        0.00000
  0
3DFACE
  8
ZONE_4
 62
  8
 10
       55.37380
 20
       11.29340
 30
        0.00000
 11
       55.37380
 21
       10.08470
 31
        0.00000
 12
       50.22890
 22
        5.43930
 32
        0.00000
 13
       50.22890
 23
        5.43930
 33
        0.00000
  0
3DFACE
  8
ZONE_4
 62
  8
 10
       50.22890
 20
        5.43930
 30
        0.00000
 11
       50.22890
 21
       10.09460
 31
        0.00000
 12
       50.24890
 22
       10.09460
 32
        0.00000
 13
       50.24890
 23
       10.09460
 33
        0.00000
  0
3DFACE
  8
ZONE_4
 62
  8
 10
       55.37380
 20
       11.29340
 30
        0.00000
 11
       50.22890
 21
        5.43930
 31
        0.00000
 12
       50.24890
 22
       10.09460
 32
        0.00000
 13
       50.24890
 23
       10.09460
 33
        0.00000
  0
3DFACE
  8
ZONE_4
 62
  8
 10
       55.37380
 20
       11.29340
 30
        0.00000
 11
       50.24890
 21
       10.09460
 31
        0.00000
 12
       50.24890
 22
       11.29340
 32
        0.00000
 13
       50.24890
 23
       11.29340
 33
        0.00000
999
ZONE_4:ZONE_4:F8
  0
3DFACE
  8
ZONE_4
 62
 15
 10
       55.37380
 20
       11.29340
 30
        3.00000
 11
       50.24890
 21
       11.29340
 31
        3.00000
 12
       50.24890
 22
       10.09460
 32
        3.00000
 13
       50.24890
 23
       10.09460
 33
        3.00000
  0
3DFACE
  8
ZONE_4
 62
 15
 10
       50.24890
 20
       10.09460
 30
        3.00000
 11
       50.22890
 21
       10.09460
 31
        3.00000
 12
       50.22890
 22
        5.43930
 32
        3.00000
 13
       50.22890
 23
        5.43930
 33
        3.00000
  0
3DFACE
  8
ZONE_4
 62
 15
 10
       55.37380
 20
       11.29340
 30
        3.00000
 11
       50.24890
 21
       10.09460
 31
        3.00000
 12
       50.22890
 22
        5.43930
 32
        3.00000
 13
       50.22890
 23
        5.43930
 33
        3.00000
  0
3DFACE
  8
ZONE_4
 62
 15
 10
       50.22890
 20
        5.43930
 30
        3.00000
 11
       59.31980
 21
        5.43930
 31
        3.00000
 12
       59.31980
 22
       10.08470
 32
        3.00000
 13
       59.31980
 23
       10.08470
 33
        3.00000
  0
3DFACE
  8
ZONE_4
 62
 15
 10
       50.22890
 20
        5.43930
 30
        3.00000
 11
       59.31980
 21
       10.08470
 31
        3.00000
 12
       55.37380
 22
       10.08470
 32
        3.00000
 13
       55.37380
 23
       10.08470
 33
        3.00000
  0
3DFACE
  8
ZONE_4
 62
 15
 10
       55.37380
 20
       11.29340
 30
        3.00000
 11
       50.22890
 21
        5.43930
 31
        3.00000
 12
       55.37380
 22
       10.08470
 32
        3.00000
 13
       55.37380
 23
       10.08470
 33
        3.00000
999
ZONE_0:DayRefPt:ZONE_0_DAYLCTRLREFPT1
  0
CIRCLE
  8
ZONE_0
 62
 10
 10
       47.15199
 20
        7.76697
 30
        0.85000
 40
        0.20000
999
ZONE_1:DayRefPt:ZONE_1_DAYLCTRLREFPT1
  0
CIRCLE
  8
ZONE_1
 62
 10
 10
       47.16198
 20
       12.02272
 30
        0.85000
 40
        0.20000
999
ZONE_4:DayRefPt:ZONE_4_DAYLCTRLREFPT1
  0
CIRCLE
  8
ZONE_4
 62
 10
 10
       54.56763
 20
        8.16987
 30
        0.85000
 40
        0.20000
  0
ENDSEC
  0
EOF
