Program Version,EnergyPlus, Version 23.1.0-87ed9199d4, YMD=2024.04.28 16:08,
   ************* Beginning Zone Sizing Calculations
   ** Warning ** CalculateZoneVolume: 2 zones are not fully enclosed. For more details use:  Output:Diagnostics,DisplayExtrawarnings; 
   ** Warning ** CheckUsedConstructions: There are 3 nominally unused constructions in input.
   **   ~~~   ** For explicit details on each unused construction, use Output:Diagnostics,DisplayExtraWarnings;
   ** Warning ** No Glare Calculation Daylighting Reference Point Name provided for object named: ZONE_0_DAYLCTRL
   **   ~~~   ** No glare calculation performed, and the simulation continues.
   ** Warning ** No Glare Calculation Daylighting Reference Point Name provided for object named: ZONE_1_DAYLCTRL
   **   ~~~   ** No glare calculation performed, and the simulation continues.
   ** Warning ** No Glare Calculation Daylighting Reference Point Name provided for object named: ZONE_4_DAYLCTRL
   **   ~~~   ** No glare calculation performed, and the simulation continues.
   ** Warning ** ZoneHVAC:IdealLoadsAirSystem "ZONE_0 IDEAL LOADS AIR" Requested outdoor air flow rate = 1.23340E-002 [m3/s] exceeds limit.
   **   ~~~   **  Will be reduced to the Maximum Heating Air Flow Rate = -99998.99999 [m3/s]
   **   ~~~   **  During Sizing, Environment=EXTREME WINTER WEATHER PERIOD FOR DESIGN, at Simulation time=02/16 24:00 - 24:15
   ** Warning ** Temperature out of range [-100. to 200.] (PsyPsatFnTemp)
   **   ~~~   **  Routine=CalcPurchAirLoads, During Sizing, Environment=EXTREME WINTER WEATHER PERIOD FOR DESIGN, at Simulation time=02/16 24:00 - 24:15
   **   ~~~   **  Input Temperature=-84371.18
   ** Warning ** ZoneHVAC:IdealLoadsAirSystem "ZONE_1 IDEAL LOADS AIR" Requested outdoor air flow rate = 1.02497E-002 [m3/s] exceeds limit.
   **   ~~~   **  Will be reduced to the Maximum Heating Air Flow Rate = -99998.99999 [m3/s]
   **   ~~~   **  During Sizing, Environment=EXTREME WINTER WEATHER PERIOD FOR DESIGN, at Simulation time=02/16 24:00 - 24:15
   ** Warning ** ZoneHVAC:IdealLoadsAirSystem "ZONE_2 IDEAL LOADS AIR" Requested outdoor air flow rate = 3.40592E-003 [m3/s] exceeds limit.
   **   ~~~   **  Will be reduced to the Maximum Heating Air Flow Rate = -99998.99999 [m3/s]
   **   ~~~   **  During Sizing, Environment=EXTREME WINTER WEATHER PERIOD FOR DESIGN, at Simulation time=02/16 24:00 - 24:15
   ** Warning ** ZoneHVAC:IdealLoadsAirSystem "ZONE_3 IDEAL LOADS AIR" Requested outdoor air flow rate = 2.45729E-003 [m3/s] exceeds limit.
   **   ~~~   **  Will be reduced to the Maximum Heating Air Flow Rate = -99998.99999 [m3/s]
   **   ~~~   **  During Sizing, Environment=EXTREME WINTER WEATHER PERIOD FOR DESIGN, at Simulation time=02/16 24:00 - 24:15
   ** Warning ** ZoneHVAC:IdealLoadsAirSystem "ZONE_4 IDEAL LOADS AIR" Requested outdoor air flow rate = 2.08487E-002 [m3/s] exceeds limit.
   **   ~~~   **  Will be reduced to the Maximum Heating Air Flow Rate = -99998.99999 [m3/s]
   **   ~~~   **  During Sizing, Environment=EXTREME WINTER WEATHER PERIOD FOR DESIGN, at Simulation time=02/16 24:00 - 24:15
   ** Warning ** ManageSizing: For a plant sizing run, there must be at least 1 Sizing:Plant object input. SimulationControl Plant Sizing option ignored.
   ************* Testing Individual Branch Integrity
   ************* All Branches passed integrity testing
   ************* Testing Individual Supply Air Path Integrity
   ************* All Supply Air Paths passed integrity testing
   ************* Testing Individual Return Air Path Integrity
   ************* All Return Air Paths passed integrity testing
   ************* No node connection errors were found.
   ************* Beginning Simulation
   ************* Simulation Error Summary *************
   ** Warning ** The following Report Variables were requested but not generated -- check.rdd file
   **   ~~~   ** Either the IDF did not contain these elements, the variable name is misspelled,
   **   ~~~   ** or the requested variable is an advanced output which requires Output : Diagnostics, DisplayAdvancedReportVariables;
   ************* Key=*, VarName=ZONE VENTILATION TOTAL HEAT LOSS ENERGY, Frequency=Hourly
   ************* Key=*, VarName=ZONE VENTILATION TOTAL HEAT GAIN ENERGY, Frequency=Hourly
   ************* There are 1 unused schedules in input.
   ************* There are 1 unused week schedules in input.
   ************* There are 1 unused day schedules in input.
   ************* Use Output:Diagnostics,DisplayUnusedSchedules; to see them.
   *************
   ************* ===== Recurring Error Summary =====
   ************* The following recurring error messages occurred.
   *************
   *************  ** Warning ** Temperature out of range [-100. to 200.] (PsyPsatFnTemp)
   *************  **   ~~~   **   This error occurred 5 total times;
   *************  **   ~~~   **   during Warmup 0 times;
   *************  **   ~~~   **   during Sizing 5 times.
   *************  **   ~~~   **   Max=-2616.326538 C  Min=-84371.183594 C
   *************
   *************
   ************* ===== Final Error Summary =====
   ************* The following error categories occurred.  Consider correcting or noting.
   ************* Nominally Unused Constructions
   ************* ..The nominally unused constructions warning is provided to alert you to potential conditions that can cause
   ************* ..extra time during simulation. Each construction is calculated by the algorithm indicated in the HeatBalanceAlgorithm
   ************* ..object. You may remove the constructions indicated (when you use the DisplayExtraWarnings option).
   *************
   ************* EnergyPlus Warmup Error Summary. During Warmup: 0 Warning; 0 Severe Errors.
   ************* EnergyPlus Sizing Error Summary. During Sizing: 11 Warning; 0 Severe Errors.
   ************* EnergyPlus Completed Successfully-- 17 Warning; 0 Severe Errors; Elapsed Time=00hr 00min  4.27sec
